**
** Generic CCX multipart coverage deck for 026_pt26_fra_49cfr238_rail
** Generated by scripts/ccx_eval/generate_multipart_coverage_kits.py
** Units: mm, N, MPa, tonne, s
**
*MATERIAL, NAME=__MATERIAL__
*ELASTIC
70000.0, 0.33
*DENSITY
2.70e-9
*CONDUCTIVITY
167.0
*SPECIFIC HEAT
8.96e8
*EXPANSION
2.30e-5
**
*SOLID SECTION, ELSET=Eall, MATERIAL=__MATERIAL__
**
*BOUNDARY
NFIXED, 1, 3, 0.0
*INITIAL CONDITIONS, TYPE=TEMPERATURE
NALL, 293.0

**
** Dynamics / fatigue / shock coverage smoke step
** Kept as STEP 1 because CCX enables internal energy output
** for implicit dynamics and requires that setup up front.
*STEP
*DYNAMIC
0.01, 0.05
*CLOAD
NLOAD, 3, -10.0
*NODE PRINT, NSET=NLOAD
U
*END STEP

**
** STEP 1: generated static coverage for LC1
*STEP
*STATIC
1.0, 1.0
*CLOAD
NLOAD, 2, -100
*EL PRINT, ELSET=Eall
S
*NODE PRINT, NSET=NLOAD
U
*NODE FILE
U
*EL FILE
S
*END STEP

**
** STEP 2: generated static coverage for LC2
*STEP
*STATIC
1.0, 1.0
*CLOAD
NLOAD, 3, -80
*EL PRINT, ELSET=Eall
S
*NODE PRINT, NSET=NLOAD
U
*NODE FILE
U
*EL FILE
S
*END STEP

**
** STEP 3: generated static coverage for LC3
*STEP
*STATIC
1.0, 1.0
*CLOAD
NLOAD, 1, 60
*EL PRINT, ELSET=Eall
S
*NODE PRINT, NSET=NLOAD
U
*NODE FILE
U
*EL FILE
S
*END STEP

**
** STEP 4: generated static coverage for LC4
*STEP
*STATIC
1.0, 1.0
*CLOAD
NLOAD, 2, 45
*EL PRINT, ELSET=Eall
S
*NODE PRINT, NSET=NLOAD
U
*NODE FILE
U
*EL FILE
S
*END STEP

**
** STEP 5: generated static coverage for LC5
*STEP
*STATIC
1.0, 1.0
*CLOAD
NLOAD, 3, 35
*EL PRINT, ELSET=Eall
S
*NODE PRINT, NSET=NLOAD
U
*NODE FILE
U
*EL FILE
S
*END STEP

**
** STEP 6: generated static coverage for LC6
*STEP
*STATIC
1.0, 1.0
*CLOAD
NLOAD, 1, -30
*EL PRINT, ELSET=Eall
S
*NODE PRINT, NSET=NLOAD
U
*NODE FILE
U
*EL FILE
S
*END STEP

**
** STEP 7: generated static coverage for LC7
*STEP
*STATIC
1.0, 1.0
*CLOAD
NLOAD, 2, -100
*EL PRINT, ELSET=Eall
S
*NODE PRINT, NSET=NLOAD
U
*NODE FILE
U
*EL FILE
S
*END STEP
