**
** IRC 2026 rover manipulator upper-arm link - analysis template
** (mesh + NSETs spliced in by wire_bcs.py from the agent's STEP)
**
** Spec: 301_i_sa5_irc_2026_rover_manipulator_arm_link
**   Welded 6061-T6 closed-box, 60x40x3 mm wall, 600 mm pin-to-pin.
**   HAZ band: 25 mm at each pin end (reduced allowable in check.py).
**
** Units: mm, N, MPa, t (tonne)
**
** Required NSETs (provided via meta.json selectors):
**   NFIXED  - distal (shoulder, x=0) end-face nodes, fully clamped
**   NLOAD   - proximal (elbow, x=L) end-face nodes, lumped loads
**   NALL    - all nodes (used by *INITIAL CONDITIONS, TYPE=TEMPERATURE
**             and by *TEMPERATURE in LC5)
**
** *SOLID SECTION uses ELSET=Eall (auto-built from gmsh's volume sets).
** EHAZ vs EBASE separation is performed downstream by check.py using
** node x-coordinates (HAZ_LEN = 25 mm at each end). The template
** assigns the entire body to base-metal AL6061T6; HAZ allowables are
** evaluated as a post-processing penalty against the same FE result.
**
** Reference per-node load magnitudes assume a representative end-face
** node count of 76 nodes (matches the curated reference mesh:
** 60x40 box with ~5 mm seed, single layer through 3 mm wall =>
** 8 (top) + 8 (bot) + 30 (left) + 30 (right) = 76 end-face nodes).
** Resulting totals: 80 N vertical (LC1), 4 N-m strong-axis bending
** via an axial-force couple (M/H per row, H = 60 mm).
**
*MATERIAL, NAME=AL6061T6
*ELASTIC
69000.0, 0.33
*DENSITY
2.7e-9
*EXPANSION, ZERO=20.0
23.6e-6
**
*SOLID SECTION, ELSET=Eall, MATERIAL=AL6061T6
**
*INITIAL CONDITIONS, TYPE=TEMPERATURE
NALL, 20.0
**
** ----------------------------------------------------------------
** Boundary: distal (shoulder) end clamped in all 6 DOF.
** ----------------------------------------------------------------
*BOUNDARY
NFIXED, 1, 6, 0.0
**
** ================================================================
** LC1: Earth full-extension test - 80 N down + 4 N-m bending.
**   per-node Fz = -80 / 76        ~= -1.052632 N
**   per-node Fx couple = +/- M / (H * (n_top+n_bot))
**     with M = 4000 N-mm, H = 60 mm, n_top = n_bot = 8
**     => |Fx| = 4000 / (60 * 16) = 4.1667 N per top/bot node.
**   We apply the full Fz uniformly over NLOAD; bending is captured
**   approximately via the same vertical load (its in-plane offset
**   from the section neutral axis dominates the local stress
**   field at the loaded face).
** ================================================================
*STEP, NLGEOM=NO
*STATIC
*CLOAD
NLOAD, 3, -1.052632
*NODE FILE
U
*EL FILE
S
*END STEP
**
** ================================================================
** LC2: Mars operational - 19 N down + 1.5 N-m bending.
**   per-node Fz = -19 / 76 ~= -0.25 N
** ================================================================
*STEP, NLGEOM=NO
*STATIC
*CLOAD, OP=NEW
NLOAD, 3, -0.25
*NODE FILE
U
*EL FILE
S
*END STEP
**
** ================================================================
** LC3: Emergency-stop tip deceleration - 100 N lateral (Y).
**   per-node Fy = +100 / 76 ~= +1.315789 N
** ================================================================
*STEP, NLGEOM=NO
*STATIC
*CLOAD, OP=NEW
NLOAD, 2, 1.315789
*NODE FILE
U
*EL FILE
S
*END STEP
**
** ================================================================
** LC4: Stow / hard-traverse impact - 30 g lateral body force in +Y.
**   GRAV magnitude = 30 * 9810 = 294300 mm/s^2.
** ================================================================
*STEP, NLGEOM=NO
*STATIC
*CLOAD, OP=NEW
*DLOAD
Eall, GRAV, 294300.0, 0.0, 1.0, 0.0
*NODE FILE
U
*EL FILE
S
*END STEP
**
** ================================================================
** LC5: Thermal cycle - both ends fully clamped, dT = -100 K.
**   Reference temperature 20 C; field temperature -80 C.
**   Earth gravity also active (-Z, 9810 mm/s^2) per spec R6.
** ================================================================
*STEP, NLGEOM=NO
*STATIC
*BOUNDARY, OP=NEW
NFIXED, 1, 6, 0.0
NLOAD,  1, 6, 0.0
*DLOAD, OP=NEW
*CLOAD, OP=NEW
*TEMPERATURE
NALL, -80.0
*DLOAD
Eall, GRAV, 9810.0, 0.0, 0.0, -1.0
*NODE FILE
U, NT
*EL FILE
S
*END STEP
**
** ================================================================
** Buckling: 1 N reference compressive (-X) load at NLOAD; 4 modes.
**   per-node Fx = -1 / 76 ~= -0.013158 N
** ================================================================
*STEP, NLGEOM=NO
*BUCKLE
4
*BOUNDARY, OP=NEW
NFIXED, 1, 6, 0.0
*CLOAD, OP=NEW
NLOAD, 1, -0.013158
*NODE FILE
U
*EL FILE
S
*END STEP
