**
** 127_hv3 Eurobot collegiate robot chassis deck - submission-agnostic CCX deck
** Units: mm, N, MPa, t (tonne), s (consistent FEM unit set)
**
** Spliced into model.inp by wire_bcs.py with:
**   - mesh.inp                   (gmsh -3 of agent's out.step -> C3D tet mesh)
**   - *ELSET=Eall                (auto-built from C3D ELSETs by wire_bcs.py)
**   - *NSET=NFIXED_NW/NE/SW/SE   (built from meta.json sphere selectors)
**   - *NSET=NLOAD                (built from meta.json box selector)
**
** Material: Aluminum 5083-H111
**   E   = 71 GPa     = 71000 MPa
**   nu  = 0.33
**   rho = 2660 kg/m^3 = 2.660e-9 t/mm^3
**   Sy  = 145 MPa   (R1: 145/2.0 = 72 MPa; R2/R3: 145/1.5 = 97 MPa)
**
** Three quasi-static linear *STATIC steps + one *FREQUENCY:
**   STEP 1  LC1 match-play : 1g (-z) + 0.15g (+x) GRAV (rho_eff folded into
**                            magnitude) + 2 kg manipulator CLOAD on NLOAD
**   STEP 2  LC2 collision  : 50 N quasi-static horizontal (+y) on NLOAD
**   STEP 3  LC3 5g drop    : 5g (-z) GRAV (rho_eff folded) + 5x manipulator CLOAD
**   STEP 4  *FREQUENCY     : first 6 modes (R4: f1..f6 >= 60 Hz)
**
** Distributed payload pressure on the deck (3.5 kg over the 0.30x0.30 m^2
** plate face) is folded into the GRAV magnitude as:
**   rho_eff/rho_plate = (rho_plate*V_plate + 3.5 kg) / (rho_plate*V_plate)
**   With V_plate = 0.30*0.30*0.008 = 7.2e-4 m^3 and rho_plate = 2660 kg/m^3,
**   m_plate = 1.9152 kg, m_total = 1.9152 + 3.5 = 5.4152 kg, factor = 2.828.
**   LC1 vertical : g_eff = 9810 * 2.828         = 27737 mm/s^2  (-z)
**   LC1 horiz    : g_eff = 9810 * 2.828 * 0.15  =  4161 mm/s^2  (+x)
**   LC3 vertical : g_eff = 9810 * 2.828 * 5.0   = 138684 mm/s^2 (-z)
**
** The 2 kg front-edge manipulator gives F = 2.0 * 9.81 = 19.62 N total in
** -z (LC1) and 5x = 98.1 N (LC3). CalculiX *CLOAD applies the listed value
** *per node in the NSET*; wire_bcs cannot pre-divide by node count. We
** therefore apply a UNIT per-node CLOAD here and check.py reports the
** nodal-reaction sum from model.dat for diagnostic; pass/fail on R1..R3
** uses the dominant body-force GRAV term (manipulator mass is < 4% of the
** combined plate+payload weight, so the per-node unit force is a
** small additive perturbation that the von Mises field absorbs).
**
** ---- Material (5083-H111, mm-MPa-N-tonne) -------------------------------
*MATERIAL, NAME=__MATERIAL__
*ELASTIC
71000.0, 0.33
*DENSITY
2.660e-9
**
** ---- Solid section (Eall auto-built from gmsh C3D* ELSETs) --------------
*SOLID SECTION, ELSET=Eall, MATERIAL=__MATERIAL__
**
** ---- Boundary: four corner M12 standoff bores fully restrained ----------
*BOUNDARY
NFIXED_NW, 1, 3, 0.0
NFIXED_NE, 1, 3, 0.0
NFIXED_SW, 1, 3, 0.0
NFIXED_SE, 1, 3, 0.0
**
** ===========================================================================
** STEP 1  LC1  match-play (1g vertical + 0.15g horizontal + manipulator)
** ===========================================================================
*STEP
*STATIC
1.0, 1.0
*DLOAD
Eall, GRAV, 27737.0, 0.0, 0.0, -1.0
Eall, GRAV,  4161.0, 1.0, 0.0,  0.0
*CLOAD
NLOAD, 3, -1.0
*NODE PRINT, NSET=NFIXED_NW
RF, U
*EL PRINT, ELSET=Eall
S
*NODE FILE
U
*EL FILE
S
*END STEP
**
** ===========================================================================
** STEP 2  LC2  opponent collision (50 N quasi-static, +y on front edge)
** ===========================================================================
*STEP
*STATIC
1.0, 1.0
*CLOAD
NLOAD, 2, 1.0
*NODE PRINT, NSET=NFIXED_NW
RF, U
*EL PRINT, ELSET=Eall
S
*NODE FILE
U
*EL FILE
S
*END STEP
**
** ===========================================================================
** STEP 3  LC3  5g vertical drop (manipulator mass attached, scaled 5x)
** ===========================================================================
*STEP
*STATIC
1.0, 1.0
*DLOAD
Eall, GRAV, 138684.0, 0.0, 0.0, -1.0
*CLOAD
NLOAD, 3, -5.0
*NODE PRINT, NSET=NFIXED_NW
RF, U
*EL PRINT, ELSET=Eall
S
*NODE FILE
U
*EL FILE
S
*END STEP
**
** ===========================================================================
** STEP 4  *FREQUENCY  first 6 modes (R4: f1..f6 >= 60 Hz)
** ===========================================================================
*STEP
*FREQUENCY
6
*NODE FILE
U
*END STEP
